   239
 Generated by Multiwfn
C      45.69800000     39.44000000     64.08000000
H      46.48800000     39.73000000     64.75000000
C      44.46800000     40.53000000     64.18000000
H      43.79800000     40.39000000     63.30000000
H      44.79800000     41.58000000     64.28000000
C      43.42800000     40.31000000     65.29000000
C      42.21800000     39.68000000     65.28000000
H      41.84800000     39.14000000     64.42000000
N      41.54800000     39.98000000     66.49000000
H      40.59800000     39.81000000     66.64000000
C      42.26800000     40.79000000     67.25000000
C      43.48800000     41.02000000     66.57000000
C      44.43800000     41.74000000     67.24000000
H      45.38800000     42.08000000     66.84000000
C      44.18800000     42.31000000     68.47000000
H      44.94800000     42.93000000     68.91000000
C      41.91800000     41.37000000     68.39000000
H      40.93800000     41.20000000     68.81000000
C      42.86800000     42.17000000     69.03000000
H      42.60800000     42.66000000     69.96000000
C      45.23800000     38.14000000     64.78000000
O      45.44800000     37.98000000     65.98000000
N      44.76800000     37.15000000     64.06000000
H      44.57800000     37.21000000     63.09000000
C      44.51800000     35.84000000     64.76000000
H      43.84800000     36.06000000     65.58000000
C      43.67800000     35.01000000     63.71000000
H      43.75800000     33.94000000     63.98000000
H      44.19800000     35.17000000     62.74000000
C      42.26800000     35.42000000     63.71000000
H      41.85800000     35.06000000     64.69000000
H      42.04800000     36.51000000     63.68000000
C      41.32800000     34.57000000     62.83000000
H      41.39800000     33.49000000     63.05000000
H      41.81800000     34.56000000     61.83000000
C      39.82800000     35.04000000     62.70000000
H      39.89800000     36.09000000     62.35000000
H      39.31800000     35.01000000     63.69000000
N      39.13800000     34.17000000     61.69000000
H      38.09800000     34.23000000     61.78000000
H      39.39800000     33.17000000     61.79000000
H      39.29800000     34.39000000     60.69000000
C      45.70800000     35.06000000     65.33000000
O      45.69800000     34.61000000     66.47000000
N      46.81800000     34.95000000     64.52000000
H      47.01800000     35.33000000     63.61000000
C      48.10800000     34.42000000     65.06000000
H      47.97800000     33.48000000     65.57000000
C      49.24800000     34.25000000     63.99000000
H      49.52800000     35.23000000     63.56000000
H      50.16800000     33.89000000     64.50000000
S      49.00800000     32.92000000     62.82000000
H      50.18800000     33.14000000     62.26000000
O      49.28800000     34.82000000     67.19000000
C      45.03800000     41.02000000     51.78000000
H      44.06800000     40.79000000     51.36000000
C      45.08800000     40.31000000     53.14000000
H      46.01800000     40.72000000     53.58000000
H      45.28800000     39.24000000     52.94000000
C      43.81800000     40.41000000     53.99000000
H      43.62800000     41.46000000     54.32000000
H      42.91800000     39.96000000     53.52000000
C      43.94800000     39.61000000     55.33000000
H      44.18800000     38.58000000     55.00000000
H      42.96800000     39.54000000     55.84000000
C      45.09800000     40.01000000     56.27000000
H      45.94800000     40.52000000     55.77000000
H      45.43800000     39.07000000     56.76000000
N      44.55800000     40.84000000     57.26000000
H      43.52800000     40.96000000     57.24000000
H      45.00800000     41.78000000     57.29000000
H      44.79800000     40.35000000     58.15000000
O      45.71800000     43.13000000     52.77000000
C      38.50800000     39.75000000     61.49000000
H      37.65800000     40.41000000     61.22000000
O      38.11800000     38.78000000     62.37000000
H      38.95800000     38.41000000     62.63000000
C      39.00800000     39.18000000     60.11000000
H      38.08800000     39.28000000     59.49000000
O      39.28800000     37.80000000     60.13000000
H      40.11800000     37.79000000     60.61000000
C      40.06800000     39.92000000     59.36000000
H      39.62800000     40.94000000     59.26000000
O      40.39800000     39.41000000     58.06000000
P      40.29800000     40.39000000     56.78000000
O      41.61800000     41.22000000     56.96000000
H      41.45800000     42.15000000     57.12000000
O      39.16800000     41.35000000     56.89000000
O      40.32800000     39.48000000     55.55000000
C      41.32800000     40.10000000     60.26000000
H      41.54800000     41.19000000     60.14000000
O      42.45800000     39.42000000     59.75000000
P      44.01800000     39.35000000     60.35000000
O      44.52800000     40.74000000     60.78000000
O      44.00800000     38.29000000     61.50000000
O      44.73800000     38.89000000     59.08000000
C      41.04800000     39.94000000     61.73000000
H      41.81800000     40.49000000     62.32000000
O      41.15800000     38.60000000     62.17000000
H      42.08800000     38.34000000     62.18000000
C      39.64800000     40.56000000     62.06000000
H      39.71800000     41.49000000     61.44000000
P      39.00800000     42.51000000     63.98000000
O      39.82800000     43.52000000     63.30000000
O      37.50800000     42.66000000     63.75000000
O      39.44800000     41.07000000     63.45000000
O      39.34800000     42.53000000     65.53000000
C      38.19800000     42.73000000     66.45000000
H      37.32800000     42.07000000     66.23000000
H      38.02800000     43.82000000     66.35000000
C      38.65800000     42.60000000     67.93000000
H      39.73800000     42.84000000     67.95000000
O      38.41800000     41.31000000     68.36000000
C      37.26800000     40.73000000     68.57000000
O      36.17800000     41.19000000     68.22000000
C      37.36800000     39.41000000     69.29000000
H      36.81800000     38.69000000     68.64000000
H      38.40800000     39.01000000     69.32000000
C      37.96800000     43.59000000     68.97000000
H      36.91800000     43.46000000     68.66000000
H      38.28800000     44.65000000     68.88000000
O      38.05800000     43.18000000     70.31000000
C      39.28800000     43.51000000     70.82000000
O      40.17800000     44.08000000     70.16000000
C      39.31800000     43.17000000     72.31000000
H      38.54800000     42.38000000     72.42000000
H      39.04800000     44.08000000     72.89000000
C      36.65800000     39.50000000     70.59000000
H      36.96800000     40.33000000     71.25000000
H      35.57800000     39.67000000     70.43000000
C      36.77800000     38.23000000     71.45000000
H      36.19800000     38.43000000     72.37000000
H      36.13800000     37.46000000     70.96000000
C      38.07800000     37.60000000     71.79000000
H      38.17800000     36.50000000     71.71000000
C      39.15800000     38.32000000     71.95000000
H      39.08800000     39.38000000     71.69000000
C      40.53800000     37.78000000     72.30000000
H      40.80800000     37.02000000     71.54000000
H      41.37800000     38.50000000     72.26000000
C      40.81800000     37.24000000     73.73000000
H      41.21800000     36.23000000     73.90000000
C      40.45800000     37.96000000     74.85000000
H      39.95800000     38.92000000     74.64000000
C      40.54800000     37.64000000     76.31000000
H      39.54800000     37.19000000     76.43000000
H      41.29800000     36.86000000     76.56000000
C      40.59800000     38.92000000     77.01000000
H      40.88800000     39.80000000     76.42000000
C      40.10800000     39.17000000     78.26000000
H      39.62800000     38.29000000     78.72000000
C      39.92800000     40.57000000     78.80000000
H      40.14800000     41.37000000     78.06000000
H      38.84800000     40.75000000     79.03000000
C      40.81800000     40.72000000     80.06000000
H      41.38800000     39.80000000     80.24000000
C      40.75800000     41.75000000     80.94000000
H      40.28800000     42.69000000     80.62000000
C      41.43800000     41.79000000     82.30000000
H      40.77800000     41.98000000     83.17000000
H      41.90800000     40.79000000     82.41000000
C      42.55800000     42.94000000     82.37000000
H      43.09800000     42.71000000     83.31000000
H      41.98800000     43.90000000     82.38000000
C      43.55800000     42.98000000     81.17000000
H      42.86800000     43.10000000     80.31000000
H      43.85800000     41.92000000     81.05000000
C      44.57800000     44.14000000     81.28000000
H      44.16800000     45.16000000     81.43000000
H      45.11800000     43.96000000     82.23000000
C      45.66800000     44.18000000     80.17000000
H      45.95800000     43.11000000     80.12000000
H      45.19800000     44.45000000     79.20000000
H      46.59800000     44.75000000     80.38000000
C      40.72800000     42.78000000     72.75000000
H      41.37800000     43.68000000     72.80000000
H      41.18800000     42.10000000     71.99000000
C      40.73800000     41.95000000     74.04000000
H      40.13800000     41.02000000     73.89000000
H      41.75800000     41.57000000     74.25000000
C      40.05800000     42.69000000     75.22000000
H      40.10800000     42.13000000     76.18000000
H      38.97800000     42.76000000     74.99000000
C      40.65800000     44.09000000     75.52000000
H      41.74800000     43.96000000     75.70000000
H      40.47800000     44.84000000     74.72000000
C      40.19800000     44.68000000     76.87000000
H      39.17800000     45.06000000     76.67000000
H      40.18800000     43.98000000     77.74000000
C      40.95800000     45.95000000     77.38000000
H      42.03800000     45.68000000     77.38000000
H      40.89800000     46.70000000     76.56000000
C      40.42800000     46.49000000     78.68000000
H      40.71800000     45.67000000     79.37000000
H      39.33800000     46.67000000     78.69000000
C      41.22800000     47.82000000     78.99000000
H      42.33800000     47.73000000     78.90000000
H      40.93800000     48.55000000     78.20000000
C      40.97800000     48.45000000     80.43000000
H      41.42800000     47.75000000     81.16000000
H      39.89800000     48.55000000     80.66000000
C      41.66800000     49.77000000     80.37000000
H      41.17800000     50.40000000     79.61000000
H      42.73800000     49.62000000     80.11000000
C      41.59800000     50.65000000     81.69000000
H      42.07800000     49.95000000     82.42000000
H      42.29800000     51.49000000     81.51000000
C      40.26800000     51.21000000     82.16000000
H      39.92800000     51.83000000     81.31000000
H      39.59800000     50.33000000     82.18000000
C      40.23800000     51.94000000     83.52000000
H      40.29800000     51.20000000     84.35000000
H      41.05800000     52.69000000     83.57000000
C      38.88800000     52.66000000     83.81000000
H      38.64800000     53.38000000     82.99000000
H      37.99800000     52.00000000     83.77000000
C      38.89800000     53.48000000     85.10000000
H      39.39800000     52.84000000     85.87000000
H      37.86800000     53.68000000     85.44000000
C      39.56800000     54.87000000     84.97000000
H      40.52800000     54.61000000     84.48000000
H      39.75800000     55.29000000     85.98000000
H      38.88800000     55.50000000     84.35000000
N      46.18400000     40.60800000     50.95600000
H      46.01800000     39.69300000     50.58900000
H      46.30100000     41.25400000     50.20200000
C      45.05800000     42.53000000     51.94000000
C      44.43500000     43.56400000     51.22700000
H      43.88700000     44.18400000     51.90500000
H      45.17800000     44.15000000     50.72800000
H      43.76600000     43.14600000     50.50500000
N      46.40200000     39.31800000     62.79500000
H      45.92300000     39.85500000     62.10100000
H      47.33700000     39.65700000     62.89400000
C      48.72800000     35.35000000     66.21000000
C      48.85800000     36.73000000     66.41600000
H      48.67000000     37.24700000     65.49800000
H      48.15400000     37.04900000     67.15500000
H      49.85100000     36.94900000     66.75100000
