 xtb: 6.6.1 (8d0f1dd)
          09252413083D

331327  0     0  0            999 V2000
   34.5814   80.1762   66.4031 C   0  0  0  0  0  0  0  0  0  0  0  0
   35.4340   79.9931   67.0685 H   0  0  0  0  0  0  0  0  0  0  0  0
   34.4270   78.9650   65.4618 C   0  0  0  0  0  0  0  0  0  0  0  0
   35.2278   78.9926   64.7223 H   0  0  0  0  0  0  0  0  0  0  0  0
   33.4694   79.0610   64.9482 H   0  0  0  0  0  0  0  0  0  0  0  0
   34.4800   77.6599   66.2524 C   0  0  0  0  0  0  0  0  0  0  0  0
   33.7493   77.7142   67.0577 H   0  0  0  0  0  0  0  0  0  0  0  0
   35.4678   77.5582   66.7023 H   0  0  0  0  0  0  0  0  0  0  0  0
   34.1763   76.4262   65.3977 C   0  0  0  0  0  0  0  0  0  0  0  0
   33.1400   76.4504   65.0654 H   0  0  0  0  0  0  0  0  0  0  0  0
   34.3360   75.5283   65.9995 H   0  0  0  0  0  0  0  0  0  0  0  0
   34.9990   76.3479   64.2009 N   0  0  0  0  0  0  0  0  0  0  0  0
   34.5890   76.7077   63.3511 H   0  0  0  0  0  0  0  0  0  0  0  0
   36.3092   76.1155   64.2002 C   0  0  0  0  0  0  0  0  0  0  0  0
   36.9649   75.8451   65.3226 N   0  0  0  0  0  0  0  0  0  0  0  0
   37.9109   75.4836   65.2382 H   0  0  0  0  0  0  0  0  0  0  0  0
   36.4607   75.4262   66.1066 H   0  0  0  0  0  0  0  0  0  0  0  0
   36.9887   76.2206   63.0535 N   0  0  0  0  0  0  0  0  0  0  0  0
   36.5399   76.4696   62.1878 H   0  0  0  0  0  0  0  0  0  0  0  0
   37.9560   75.9431   63.0406 H   0  0  0  0  0  0  0  0  0  0  0  0
   33.9425   82.2165   65.2713 O   0  0  0  0  0  0  0  0  0  0  0  0
   31.6319   69.3038   63.1155 C   0  0  0  0  0  0  0  0  0  0  0  0
   31.1651   70.0736   62.4924 H   0  0  0  0  0  0  0  0  0  0  0  0
   33.1584   69.3612   62.8975 C   0  0  0  0  0  0  0  0  0  0  0  0
   33.6461   68.7250   63.6336 H   0  0  0  0  0  0  0  0  0  0  0  0
   33.3933   68.9805   61.9033 H   0  0  0  0  0  0  0  0  0  0  0  0
   33.6748   70.7916   63.0367 C   0  0  0  0  0  0  0  0  0  0  0  0
   33.3592   71.1986   63.9971 H   0  0  0  0  0  0  0  0  0  0  0  0
   33.2381   71.4080   62.2507 H   0  0  0  0  0  0  0  0  0  0  0  0
   35.1941   70.8733   62.9219 C   0  0  0  0  0  0  0  0  0  0  0  0
   35.5281   70.2867   62.0624 H   0  0  0  0  0  0  0  0  0  0  0  0
   35.5002   71.9176   62.7882 H   0  0  0  0  0  0  0  0  0  0  0  0
   35.8146   70.3333   64.1241 N   0  0  0  0  0  0  0  0  0  0  0  0
   35.2664   70.4721   64.9717 H   0  0  0  0  0  0  0  0  0  0  0  0
   37.1305   70.3141   64.3166 C   0  0  0  0  0  0  0  0  0  0  0  0
   37.5842   69.8764   65.5064 N   0  0  0  0  0  0  0  0  0  0  0  0
   38.5729   70.0069   65.6778 H   0  0  0  0  0  0  0  0  0  0  0  0
   37.0197   70.1441   66.3017 H   0  0  0  0  0  0  0  0  0  0  0  0
   37.9912   70.4557   63.3066 N   0  0  0  0  0  0  0  0  0  0  0  0
   38.9281   70.7751   63.5577 H   0  0  0  0  0  0  0  0  0  0  0  0
   37.6442   70.8540   62.4483 H   0  0  0  0  0  0  0  0  0  0  0  0
   31.1066   66.9734   63.4800 O   0  0  0  0  0  0  0  0  0  0  0  0
   30.0812   68.1519   70.5249 C   0  0  0  0  0  0  0  0  0  0  0  0
   30.1579   67.0925   70.7954 H   0  0  0  0  0  0  0  0  0  0  0  0
   30.7943   68.3929   69.1780 C   0  0  0  0  0  0  0  0  0  0  0  0
   30.1071   68.0874   68.3890 H   0  0  0  0  0  0  0  0  0  0  0  0
   30.9620   69.4652   69.0624 H   0  0  0  0  0  0  0  0  0  0  0  0
   32.1280   67.6580   69.0461 C   0  0  0  0  0  0  0  0  0  0  0  0
   32.6449   68.0734   68.1819 H   0  0  0  0  0  0  0  0  0  0  0  0
   32.7253   67.8460   69.9396 H   0  0  0  0  0  0  0  0  0  0  0  0
   31.9713   66.1341   68.8949 C   0  0  0  0  0  0  0  0  0  0  0  0
   32.9307   65.6925   68.6180 H   0  0  0  0  0  0  0  0  0  0  0  0
   31.6638   65.7058   69.8478 H   0  0  0  0  0  0  0  0  0  0  0  0
   30.9610   65.7479   67.9248 N   0  0  0  0  0  0  0  0  0  0  0  0
   30.0446   65.5538   68.3004 H   0  0  0  0  0  0  0  0  0  0  0  0
   31.0362   65.9731   66.6088 C   0  0  0  0  0  0  0  0  0  0  0  0
   32.1665   66.3457   66.0244 N   0  0  0  0  0  0  0  0  0  0  0  0
   33.0270   66.4620   66.5309 H   0  0  0  0  0  0  0  0  0  0  0  0
   32.1382   66.5175   65.0214 H   0  0  0  0  0  0  0  0  0  0  0  0
   29.9657   65.7778   65.8434 N   0  0  0  0  0  0  0  0  0  0  0  0
   29.0733   65.5172   66.2264 H   0  0  0  0  0  0  0  0  0  0  0  0
   30.0424   65.9648   64.8506 H   0  0  0  0  0  0  0  0  0  0  0  0
   31.7272   68.4344   72.2479 O   0  0  0  0  0  0  0  0  0  0  0  0
   33.2271   66.0745   74.2490 C   0  0  0  0  0  0  0  0  0  0  0  0
   33.5057   65.4141   75.0825 H   0  0  0  0  0  0  0  0  0  0  0  0
   32.6929   65.2223   73.0777 C   0  0  0  0  0  0  0  0  0  0  0  0
   31.6277   65.0583   73.2491 H   0  0  0  0  0  0  0  0  0  0  0  0
   32.7922   65.8197   72.1710 H   0  0  0  0  0  0  0  0  0  0  0  0
   33.4130   63.8712   72.9390 C   0  0  0  0  0  0  0  0  0  0  0  0
   32.7940   63.0793   73.3591 H   0  0  0  0  0  0  0  0  0  0  0  0
   34.3416   63.8944   73.5100 H   0  0  0  0  0  0  0  0  0  0  0  0
   33.7470   63.5311   71.4899 C   0  0  0  0  0  0  0  0  0  0  0  0
   32.8423   63.5900   70.8775 H   0  0  0  0  0  0  0  0  0  0  0  0
   34.1450   62.5122   71.4481 H   0  0  0  0  0  0  0  0  0  0  0  0
   34.7424   64.4772   71.0169 N   0  0  0  0  0  0  0  0  0  0  0  0
   35.0347   65.1751   71.7094 H   0  0  0  0  0  0  0  0  0  0  0  0
   35.3057   64.4694   69.8213 C   0  0  0  0  0  0  0  0  0  0  0  0
   34.9383   63.5903   68.8865 N   0  0  0  0  0  0  0  0  0  0  0  0
   35.4362   63.5414   68.0118 H   0  0  0  0  0  0  0  0  0  0  0  0
   34.3199   62.8300   69.1153 H   0  0  0  0  0  0  0  0  0  0  0  0
   36.1980   65.4165   69.5184 N   0  0  0  0  0  0  0  0  0  0  0  0
   36.5070   66.0547   70.2337 H   0  0  0  0  0  0  0  0  0  0  0  0
   36.7282   65.3850   68.6618 H   0  0  0  0  0  0  0  0  0  0  0  0
   34.5025   66.8184   73.8457 C   0  0  0  0  0  0  0  0  0  0  0  0
   35.3152   66.3704   73.0373 O   0  0  0  0  0  0  0  0  0  0  0  0
   34.6480   67.9920   74.4509 N   0  0  0  0  0  0  0  0  0  0  0  0
   33.9173   68.2615   75.0992 H   0  0  0  0  0  0  0  0  0  0  0  0
   35.7750   68.8842   74.2901 C   0  0  0  0  0  0  0  0  0  0  0  0
   36.3984   68.5032   73.4815 H   0  0  0  0  0  0  0  0  0  0  0  0
   35.3004   70.3024   73.9605 C   0  0  0  0  0  0  0  0  0  0  0  0
   36.1846   70.9375   73.8620 H   0  0  0  0  0  0  0  0  0  0  0  0
   34.7299   70.6758   74.8135 H   0  0  0  0  0  0  0  0  0  0  0  0
   34.4582   70.3823   72.6864 C   0  0  0  0  0  0  0  0  0  0  0  0
   33.5637   69.7678   72.7970 H   0  0  0  0  0  0  0  0  0  0  0  0
   34.1464   71.4212   72.5713 H   0  0  0  0  0  0  0  0  0  0  0  0
   35.2372   69.9457   71.4419 C   0  0  0  0  0  0  0  0  0  0  0  0
   36.2640   70.3080   71.5188 H   0  0  0  0  0  0  0  0  0  0  0  0
   35.2504   68.8574   71.3985 H   0  0  0  0  0  0  0  0  0  0  0  0
   34.6206   70.5118   70.1651 C   0  0  0  0  0  0  0  0  0  0  0  0
   33.6121   70.1267   70.0154 H   0  0  0  0  0  0  0  0  0  0  0  0
   34.5753   71.5986   70.2310 H   0  0  0  0  0  0  0  0  0  0  0  0
   35.4616   70.1544   68.9951 N   0  0  0  0  0  0  0  0  0  0  0  0
   35.2215   70.7134   68.1311 H   0  0  0  0  0  0  0  0  0  0  0  0
   35.4101   69.1491   68.7982 H   0  0  0  0  0  0  0  0  0  0  0  0
   36.4454   70.4057   69.2108 H   0  0  0  0  0  0  0  0  0  0  0  0
   36.5443   68.8875   75.6250 C   0  0  0  0  0  0  0  0  0  0  0  0
   36.1319   69.5448   76.5800 O   0  0  0  0  0  0  0  0  0  0  0  0
   37.6128   68.0886   75.7174 N   0  0  0  0  0  0  0  0  0  0  0  0
   38.1948   67.2523   74.6747 C   0  0  0  0  0  0  0  0  0  0  0  0
   37.4095   66.7317   74.1244 H   0  0  0  0  0  0  0  0  0  0  0  0
   38.7907   67.8717   73.9917 H   0  0  0  0  0  0  0  0  0  0  0  0
   38.3792   68.0241   76.9614 C   0  0  0  0  0  0  0  0  0  0  0  0
   37.7646   67.5444   77.7360 H   0  0  0  0  0  0  0  0  0  0  0  0
   39.5942   67.1531   76.6044 C   0  0  0  0  0  0  0  0  0  0  0  0
   39.9297   66.5771   77.4632 H   0  0  0  0  0  0  0  0  0  0  0  0
   40.4191   67.7879   76.2768 H   0  0  0  0  0  0  0  0  0  0  0  0
   39.0943   66.2901   75.4500 C   0  0  0  0  0  0  0  0  0  0  0  0
   38.5100   65.4561   75.8371 H   0  0  0  0  0  0  0  0  0  0  0  0
   39.9265   65.9203   74.8562 H   0  0  0  0  0  0  0  0  0  0  0  0
   38.7663   69.6086   78.7292 O   0  0  0  0  0  0  0  0  0  0  0  0
   43.0917   69.0692   68.3415 C   0  0  0  0  0  0  0  0  0  0  0  0
   42.4568   69.4543   69.1609 H   0  0  0  0  0  0  0  0  0  0  0  0
   43.6561   67.7114   68.7977 C   0  0  0  0  0  0  0  0  0  0  0  0
   44.3595   67.3585   68.0434 H   0  0  0  0  0  0  0  0  0  0  0  0
   44.2106   67.9063   69.7198 H   0  0  0  0  0  0  0  0  0  0  0  0
   42.5519   66.6918   69.0690 C   0  0  0  0  0  0  0  0  0  0  0  0
   42.2782   66.1938   68.1387 H   0  0  0  0  0  0  0  0  0  0  0  0
   41.6826   67.2363   69.4371 H   0  0  0  0  0  0  0  0  0  0  0  0
   43.0046   65.6713   70.1199 C   0  0  0  0  0  0  0  0  0  0  0  0
   43.2118   66.1949   71.0573 H   0  0  0  0  0  0  0  0  0  0  0  0
   43.9253   65.1909   69.7874 H   0  0  0  0  0  0  0  0  0  0  0  0
   42.0222   64.6329   70.3545 N   0  0  0  0  0  0  0  0  0  0  0  0
   42.1008   63.8067   69.7784 H   0  0  0  0  0  0  0  0  0  0  0  0
   40.9615   64.7478   71.1499 C   0  0  0  0  0  0  0  0  0  0  0  0
   40.6698   65.8788   71.7744 N   0  0  0  0  0  0  0  0  0  0  0  0
   41.2539   66.7030   71.7129 H   0  0  0  0  0  0  0  0  0  0  0  0
   39.9449   65.9014   72.4726 H   0  0  0  0  0  0  0  0  0  0  0  0
   40.1339   63.7021   71.2688 N   0  0  0  0  0  0  0  0  0  0  0  0
   40.3999   62.8041   70.8964 H   0  0  0  0  0  0  0  0  0  0  0  0
   39.4110   63.7187   71.9717 H   0  0  0  0  0  0  0  0  0  0  0  0
   40.9739   68.9080   67.2105 O   0  0  0  0  0  0  0  0  0  0  0  0
   39.6765   72.8682   70.5682 C   0  0  0  0  0  0  0  0  0  0  0  0
   39.8410   73.9015   70.2312 H   0  0  0  0  0  0  0  0  0  0  0  0
   39.6144   72.9010   71.9698 O   0  0  0  0  0  0  0  0  0  0  0  0
   40.0055   72.0841   72.3285 H   0  0  0  0  0  0  0  0  0  0  0  0
   38.3590   72.3836   69.9466 C   0  0  0  0  0  0  0  0  0  0  0  0
   37.5302   72.9065   70.4415 H   0  0  0  0  0  0  0  0  0  0  0  0
   38.0870   71.0182   70.1128 O   0  0  0  0  0  0  0  0  0  0  0  0
   38.9135   70.5109   70.0755 H   0  0  0  0  0  0  0  0  0  0  0  0
   38.3631   72.7904   68.4580 C   0  0  0  0  0  0  0  0  0  0  0  0
   38.0299   73.8370   68.3891 H   0  0  0  0  0  0  0  0  0  0  0  0
   37.4457   71.9868   67.7971 O   0  0  0  0  0  0  0  0  0  0  0  0
   36.3933   72.6835   66.7283 P   0  0  0  0  0  0  0  0  0  0  0  0
   37.0869   72.7537   65.2890 O   0  0  0  0  0  0  0  0  0  0  0  0
   37.9258   73.2816   65.2471 H   0  0  0  0  0  0  0  0  0  0  0  0
   35.3366   71.6220   66.6632 O   0  0  0  0  0  0  0  0  0  0  0  0
   36.0514   74.0536   67.2201 O   0  0  0  0  0  0  0  0  0  0  0  0
   39.7520   72.7139   67.7778 C   0  0  0  0  0  0  0  0  0  0  0  0
   40.1278   73.7466   67.6563 H   0  0  0  0  0  0  0  0  0  0  0  0
   39.6008   72.1164   66.5280 O   0  0  0  0  0  0  0  0  0  0  0  0
   40.2296   73.0225   65.2555 P   0  0  0  0  0  0  0  0  0  0  0  0
   39.2506   74.2003   65.1304 O   0  0  0  0  0  0  0  0  0  0  0  0
   41.6225   73.4529   65.6978 O   0  0  0  0  0  0  0  0  0  0  0  0
   40.1669   72.0617   64.0954 O   0  0  0  0  0  0  0  0  0  0  0  0
   40.8490   71.9299   68.5074 C   0  0  0  0  0  0  0  0  0  0  0  0
   40.7031   70.8686   68.2369 H   0  0  0  0  0  0  0  0  0  0  0  0
   42.1117   72.3556   68.0396 O   0  0  0  0  0  0  0  0  0  0  0  0
   41.9809   72.7404   67.1245 H   0  0  0  0  0  0  0  0  0  0  0  0
   40.8359   72.0156   70.0439 C   0  0  0  0  0  0  0  0  0  0  0  0
   41.7942   72.4487   70.3628 H   0  0  0  0  0  0  0  0  0  0  0  0
   41.8750   70.1345   71.5810 P   0  0  0  0  0  0  0  0  0  0  0  0
   41.7067   68.6639   71.5841 O   0  0  0  0  0  0  0  0  0  0  0  0
   43.1905   70.8002   71.3814 O   0  0  0  0  0  0  0  0  0  0  0  0
   40.7273   70.7084   70.5618 O   0  0  0  0  0  0  0  0  0  0  0  0
   41.1691   70.7502   72.9688 O   0  0  0  0  0  0  0  0  0  0  0  0
   42.0117   70.8129   74.0853 C   0  0  0  0  0  0  0  0  0  0  0  0
   42.8624   71.4718   73.8756 H   0  0  0  0  0  0  0  0  0  0  0  0
   41.4224   71.2520   74.8956 H   0  0  0  0  0  0  0  0  0  0  0  0
   42.5160   69.4254   74.4969 C   0  0  0  0  0  0  0  0  0  0  0  0
   41.9219   68.6785   73.9615 H   0  0  0  0  0  0  0  0  0  0  0  0
   42.2987   69.1324   75.8615 O   0  0  0  0  0  0  0  0  0  0  0  0
   42.8140   69.9723   76.8200 C   0  0  0  0  0  0  0  0  0  0  0  0
   43.4471   70.9952   76.5513 O   0  0  0  0  0  0  0  0  0  0  0  0
   42.4647   69.4582   78.1887 C   0  0  0  0  0  0  0  0  0  0  0  0
   43.0455   68.5512   78.3820 H   0  0  0  0  0  0  0  0  0  0  0  0
   41.4076   69.1746   78.1827 H   0  0  0  0  0  0  0  0  0  0  0  0
   43.9894   69.2508   74.0963 C   0  0  0  0  0  0  0  0  0  0  0  0
   44.0289   69.1958   73.0034 H   0  0  0  0  0  0  0  0  0  0  0  0
   44.5701   70.1085   74.4432 H   0  0  0  0  0  0  0  0  0  0  0  0
   44.5859   68.1288   74.6928 O   0  0  0  0  0  0  0  0  0  0  0  0
   44.1285   66.8827   74.3648 C   0  0  0  0  0  0  0  0  0  0  0  0
   43.2980   66.6611   73.4944 O   0  0  0  0  0  0  0  0  0  0  0  0
   44.7840   65.8616   75.2515 C   0  0  0  0  0  0  0  0  0  0  0  0
   45.8229   66.1627   75.3905 H   0  0  0  0  0  0  0  0  0  0  0  0
   44.7401   64.8835   74.7761 H   0  0  0  0  0  0  0  0  0  0  0  0
   42.7292   70.4846   79.2838 C   0  0  0  0  0  0  0  0  0  0  0  0
   42.2213   71.4164   79.0235 H   0  0  0  0  0  0  0  0  0  0  0  0
   43.7989   70.6940   79.3253 H   0  0  0  0  0  0  0  0  0  0  0  0
   42.2223   69.9864   80.6425 C   0  0  0  0  0  0  0  0  0  0  0  0
   42.3950   70.7702   81.3831 H   0  0  0  0  0  0  0  0  0  0  0  0
   41.1447   69.8272   80.5662 H   0  0  0  0  0  0  0  0  0  0  0  0
   42.8946   68.7123   81.0632 C   0  0  0  0  0  0  0  0  0  0  0  0
   42.3150   67.8122   80.9088 H   0  0  0  0  0  0  0  0  0  0  0  0
   44.1141   68.6081   81.5702 C   0  0  0  0  0  0  0  0  0  0  0  0
   44.4989   67.6297   81.8260 H   0  0  0  0  0  0  0  0  0  0  0  0
   45.0672   69.7363   81.8349 C   0  0  0  0  0  0  0  0  0  0  0  0
   45.8321   69.7463   81.0516 H   0  0  0  0  0  0  0  0  0  0  0  0
   44.5367   70.6901   81.7941 H   0  0  0  0  0  0  0  0  0  0  0  0
   45.7253   69.5852   83.1732 C   0  0  0  0  0  0  0  0  0  0  0  0
   45.0488   69.5778   84.0184 H   0  0  0  0  0  0  0  0  0  0  0  0
   47.0286   69.4641   83.3606 C   0  0  0  0  0  0  0  0  0  0  0  0
   47.6990   69.4683   82.5093 H   0  0  0  0  0  0  0  0  0  0  0  0
   47.6964   69.3366   84.6930 C   0  0  0  0  0  0  0  0  0  0  0  0
   46.9473   69.3820   85.4899 H   0  0  0  0  0  0  0  0  0  0  0  0
   48.3713   70.1882   84.8313 H   0  0  0  0  0  0  0  0  0  0  0  0
   48.4946   68.0720   84.8439 C   0  0  0  0  0  0  0  0  0  0  0  0
   49.2384   68.0915   85.6310 H   0  0  0  0  0  0  0  0  0  0  0  0
   48.3405   66.9808   84.1138 C   0  0  0  0  0  0  0  0  0  0  0  0
   47.5851   66.9503   83.3392 H   0  0  0  0  0  0  0  0  0  0  0  0
   49.1296   65.7199   84.3068 C   0  0  0  0  0  0  0  0  0  0  0  0
   49.5319   65.4004   83.3399 H   0  0  0  0  0  0  0  0  0  0  0  0
   49.9618   65.8970   84.9902 H   0  0  0  0  0  0  0  0  0  0  0  0
   48.2389   64.6413   84.8481 C   0  0  0  0  0  0  0  0  0  0  0  0
   47.3887   64.3915   84.2276 H   0  0  0  0  0  0  0  0  0  0  0  0
   48.4179   64.0255   86.0040 C   0  0  0  0  0  0  0  0  0  0  0  0
   49.2676   64.2819   86.6234 H   0  0  0  0  0  0  0  0  0  0  0  0
   47.4936   62.9824   86.5505 C   0  0  0  0  0  0  0  0  0  0  0  0
   46.8915   62.5700   85.7379 H   0  0  0  0  0  0  0  0  0  0  0  0
   48.0737   62.1685   86.9888 H   0  0  0  0  0  0  0  0  0  0  0  0
   46.5379   63.5559   87.6077 C   0  0  0  0  0  0  0  0  0  0  0  0
   45.8809   62.7540   87.9537 H   0  0  0  0  0  0  0  0  0  0  0  0
   45.9152   64.3159   87.1293 H   0  0  0  0  0  0  0  0  0  0  0  0
   47.2312   64.1885   88.8145 C   0  0  0  0  0  0  0  0  0  0  0  0
   47.8644   65.0122   88.4789 H   0  0  0  0  0  0  0  0  0  0  0  0
   46.4616   64.6144   89.4642 H   0  0  0  0  0  0  0  0  0  0  0  0
   48.0651   63.2014   89.6288 C   0  0  0  0  0  0  0  0  0  0  0  0
   47.4446   62.3434   89.8989 H   0  0  0  0  0  0  0  0  0  0  0  0
   48.8976   62.8352   89.0260 H   0  0  0  0  0  0  0  0  0  0  0  0
   48.6171   63.8449   90.8956 C   0  0  0  0  0  0  0  0  0  0  0  0
   47.8064   64.1929   91.5323 H   0  0  0  0  0  0  0  0  0  0  0  0
   49.2442   64.6985   90.6465 H   0  0  0  0  0  0  0  0  0  0  0  0
   49.2150   63.1323   91.4591 H   0  0  0  0  0  0  0  0  0  0  0  0
   44.0823   65.8356   76.6221 C   0  0  0  0  0  0  0  0  0  0  0  0
   43.7885   66.8559   76.8810 H   0  0  0  0  0  0  0  0  0  0  0  0
   43.1724   65.2390   76.5526 H   0  0  0  0  0  0  0  0  0  0  0  0
   44.9932   65.2816   77.7150 C   0  0  0  0  0  0  0  0  0  0  0  0
   45.8525   65.9474   77.8233 H   0  0  0  0  0  0  0  0  0  0  0  0
   45.3612   64.3003   77.4141 H   0  0  0  0  0  0  0  0  0  0  0  0
   44.2651   65.1779   79.0551 C   0  0  0  0  0  0  0  0  0  0  0  0
   43.6867   66.0925   79.2120 H   0  0  0  0  0  0  0  0  0  0  0  0
   43.5631   64.3428   79.0234 H   0  0  0  0  0  0  0  0  0  0  0  0
   45.2115   65.0054   80.2427 C   0  0  0  0  0  0  0  0  0  0  0  0
   45.8603   65.8830   80.3075 H   0  0  0  0  0  0  0  0  0  0  0  0
   44.6140   64.9726   81.1578 H   0  0  0  0  0  0  0  0  0  0  0  0
   46.0770   63.7489   80.1687 C   0  0  0  0  0  0  0  0  0  0  0  0
   45.4403   62.8754   80.0135 H   0  0  0  0  0  0  0  0  0  0  0  0
   46.7538   63.8311   79.3188 H   0  0  0  0  0  0  0  0  0  0  0  0
   46.8837   63.5679   81.4524 C   0  0  0  0  0  0  0  0  0  0  0  0
   46.1840   63.4693   82.2872 H   0  0  0  0  0  0  0  0  0  0  0  0
   47.4769   64.4663   81.6305 H   0  0  0  0  0  0  0  0  0  0  0  0
   47.7966   62.3407   81.4466 C   0  0  0  0  0  0  0  0  0  0  0  0
   47.1909   61.4569   81.2318 H   0  0  0  0  0  0  0  0  0  0  0  0
   48.2154   62.2191   82.4494 H   0  0  0  0  0  0  0  0  0  0  0  0
   48.9506   62.3976   80.4433 C   0  0  0  0  0  0  0  0  0  0  0  0
   48.5574   62.5309   79.4340 H   0  0  0  0  0  0  0  0  0  0  0  0
   49.4669   61.4366   80.4658 H   0  0  0  0  0  0  0  0  0  0  0  0
   49.9534   63.5127   80.7400 C   0  0  0  0  0  0  0  0  0  0  0  0
   49.4553   64.4743   80.6042 H   0  0  0  0  0  0  0  0  0  0  0  0
   50.2638   63.4502   81.7856 H   0  0  0  0  0  0  0  0  0  0  0  0
   51.1934   63.4660   79.8344 C   0  0  0  0  0  0  0  0  0  0  0  0
   50.9556   62.9168   78.9208 H   0  0  0  0  0  0  0  0  0  0  0  0
   51.4581   64.4840   79.5378 H   0  0  0  0  0  0  0  0  0  0  0  0
   52.4274   62.8421   80.4897 C   0  0  0  0  0  0  0  0  0  0  0  0
   52.6645   63.3944   81.4028 H   0  0  0  0  0  0  0  0  0  0  0  0
   53.2747   62.9616   79.8084 H   0  0  0  0  0  0  0  0  0  0  0  0
   52.2728   61.3609   80.8253 C   0  0  0  0  0  0  0  0  0  0  0  0
   51.4839   61.2404   81.5672 H   0  0  0  0  0  0  0  0  0  0  0  0
   51.9812   60.8163   79.9238 H   0  0  0  0  0  0  0  0  0  0  0  0
   53.5737   60.7714   81.3678 C   0  0  0  0  0  0  0  0  0  0  0  0
   54.3708   60.9563   80.6426 H   0  0  0  0  0  0  0  0  0  0  0  0
   53.8460   61.2879   82.2917 H   0  0  0  0  0  0  0  0  0  0  0  0
   53.4961   59.2675   81.6342 C   0  0  0  0  0  0  0  0  0  0  0  0
   54.5011   58.9025   81.8620 H   0  0  0  0  0  0  0  0  0  0  0  0
   53.1594   58.7583   80.7279 H   0  0  0  0  0  0  0  0  0  0  0  0
   52.5715   58.8995   82.7931 C   0  0  0  0  0  0  0  0  0  0  0  0
   51.5457   59.1819   82.5515 H   0  0  0  0  0  0  0  0  0  0  0  0
   52.8706   59.4595   83.6824 H   0  0  0  0  0  0  0  0  0  0  0  0
   52.6186   57.4063   83.0958 C   0  0  0  0  0  0  0  0  0  0  0  0
   53.6274   57.1036   83.3688 H   0  0  0  0  0  0  0  0  0  0  0  0
   51.9519   57.1612   83.9192 H   0  0  0  0  0  0  0  0  0  0  0  0
   52.3143   56.8317   82.2237 H   0  0  0  0  0  0  0  0  0  0  0  0
   34.8604   81.4348   65.5876 C   0  0  0  0  0  0  0  0  0  0  0  0
   36.3013   81.6805   65.2225 C   0  0  0  0  0  0  0  0  0  0  0  0
   36.7956   80.7529   64.9435 H   0  0  0  0  0  0  0  0  0  0  0  0
   36.3649   82.3981   64.4083 H   0  0  0  0  0  0  0  0  0  0  0  0
   36.8282   82.0919   66.0852 H   0  0  0  0  0  0  0  0  0  0  0  0
   33.3751   80.2896   67.2172 N   0  0  0  0  0  0  0  0  0  0  0  0
   33.5344   80.9549   67.9663 H   0  0  0  0  0  0  0  0  0  0  0  0
   32.6475   80.6914   66.6302 H   0  0  0  0  0  0  0  0  0  0  0  0
   31.1043   67.9406   62.6881 C   0  0  0  0  0  0  0  0  0  0  0  0
   30.5648   67.8322   61.2942 C   0  0  0  0  0  0  0  0  0  0  0  0
   30.3760   66.7929   61.0361 H   0  0  0  0  0  0  0  0  0  0  0  0
   29.6299   68.3899   61.2082 H   0  0  0  0  0  0  0  0  0  0  0  0
   31.2667   68.2640   60.5828 H   0  0  0  0  0  0  0  0  0  0  0  0
   31.3453   69.6105   64.5120 N   0  0  0  0  0  0  0  0  0  0  0  0
   30.3571   69.7912   64.6364 H   0  0  0  0  0  0  0  0  0  0  0  0
   31.5907   68.8065   65.0818 H   0  0  0  0  0  0  0  0  0  0  0  0
   30.7904   68.9448   71.6126 C   0  0  0  0  0  0  0  0  0  0  0  0
   30.3386   70.3605   71.8483 C   0  0  0  0  0  0  0  0  0  0  0  0
   29.3849   70.3722   72.3788 H   0  0  0  0  0  0  0  0  0  0  0  0
   31.0695   70.8865   72.4584 H   0  0  0  0  0  0  0  0  0  0  0  0
   30.2059   70.8912   70.9066 H   0  0  0  0  0  0  0  0  0  0  0  0
   28.6630   68.4327   70.3435 N   0  0  0  0  0  0  0  0  0  0  0  0
   28.1605   68.3189   71.2167 H   0  0  0  0  0  0  0  0  0  0  0  0
   28.5283   69.3899   70.0374 H   0  0  0  0  0  0  0  0  0  0  0  0
   32.2754   67.0420   74.7734 N   0  0  0  0  0  0  0  0  0  0  0  0
   31.9530   67.6339   74.0100 H   0  0  0  0  0  0  0  0  0  0  0  0
   31.4718   66.5696   75.1685 H   0  0  0  0  0  0  0  0  0  0  0  0
   38.7771   69.3828   77.5009 C   0  0  0  0  0  0  0  0  0  0  0  0
   39.2004   70.4206   76.4923 C   0  0  0  0  0  0  0  0  0  0  0  0
   39.4514   69.9727   75.5347 H   0  0  0  0  0  0  0  0  0  0  0  0
   38.3934   71.1409   76.3442 H   0  0  0  0  0  0  0  0  0  0  0  0
   40.0641   70.9738   76.8676 H   0  0  0  0  0  0  0  0  0  0  0  0
   42.2157   68.9374   67.1133 C   0  0  0  0  0  0  0  0  0  0  0  0
   42.9141   68.8673   65.7831 C   0  0  0  0  0  0  0  0  0  0  0  0
   43.9785   68.7223   65.9250 H   0  0  0  0  0  0  0  0  0  0  0  0
   42.4818   68.0791   65.1708 H   0  0  0  0  0  0  0  0  0  0  0  0
   42.7564   69.8147   65.2614 H   0  0  0  0  0  0  0  0  0  0  0  0
   44.2152   69.9683   68.0613 N   0  0  0  0  0  0  0  0  0  0  0  0
   43.8375   70.8587   67.7444 H   0  0  0  0  0  0  0  0  0  0  0  0
   44.6749   70.1700   68.9454 H   0  0  0  0  0  0  0  0  0  0  0  0
  1  2  1  0  0  0  0
  1  3  1  0  0  0  0
  3  4  1  0  0  0  0
  3  5  1  0  0  0  0
  3  6  1  0  0  0  0
  6  7  1  0  0  0  0
  6  8  1  0  0  0  0
  6  9  1  0  0  0  0
  9 10  1  0  0  0  0
  9 11  1  0  0  0  0
  9 12  1  0  0  0  0
 12 13  1  0  0  0  0
 12 14  4  0  0  0  0
 14 15  4  0  0  0  0
 15 16  1  0  0  0  0
 15 17  1  0  0  0  0
 14 18  4  0  0  0  0
 18 19  1  0  0  0  0
 18 20  1  0  0  0  0
 22 23  1  0  0  0  0
 22 24  1  0  0  0  0
 24 25  1  0  0  0  0
 24 26  1  0  0  0  0
 24 27  1  0  0  0  0
 27 28  1  0  0  0  0
 27 29  1  0  0  0  0
 27 30  1  0  0  0  0
 30 31  1  0  0  0  0
 30 32  1  0  0  0  0
 30 33  1  0  0  0  0
 33 34  1  0  0  0  0
 33 35  4  0  0  0  0
 35 36  4  0  0  0  0
 36 37  1  0  0  0  0
 36 38  1  0  0  0  0
 35 39  4  0  0  0  0
 39 40  1  0  0  0  0
 39 41  1  0  0  0  0
 43 44  1  0  0  0  0
 43 45  1  0  0  0  0
 45 46  1  0  0  0  0
 45 47  1  0  0  0  0
 45 48  1  0  0  0  0
 48 49  1  0  0  0  0
 48 50  1  0  0  0  0
 48 51  1  0  0  0  0
 51 52  1  0  0  0  0
 51 53  1  0  0  0  0
 51 54  1  0  0  0  0
 54 55  1  0  0  0  0
 54 56  4  0  0  0  0
 56 57  4  0  0  0  0
 57 58  1  0  0  0  0
 57 59  1  0  0  0  0
 56 60  4  0  0  0  0
 60 61  1  0  0  0  0
 60 62  1  0  0  0  0
 64 65  1  0  0  0  0
 64 66  1  0  0  0  0
 66 67  1  0  0  0  0
 66 68  1  0  0  0  0
 66 69  1  0  0  0  0
 69 70  1  0  0  0  0
 69 71  1  0  0  0  0
 69 72  1  0  0  0  0
 72 73  1  0  0  0  0
 72 74  1  0  0  0  0
 72 75  1  0  0  0  0
 75 76  1  0  0  0  0
 75 77  4  0  0  0  0
 77 78  4  0  0  0  0
 78 79  1  0  0  0  0
 78 80  1  0  0  0  0
 77 81  4  0  0  0  0
 81 82  1  0  0  0  0
 81 83  1  0  0  0  0
 64 84  1  0  0  0  0
 84 85  2  0  0  0  0
 84 86  4  0  0  0  0
 86 87  1  0  0  0  0
 86 88  1  0  0  0  0
 88 89  1  0  0  0  0
 88 90  1  0  0  0  0
 90 91  1  0  0  0  0
 90 92  1  0  0  0  0
 90 93  1  0  0  0  0
 93 94  1  0  0  0  0
 93 95  1  0  0  0  0
 93 96  1  0  0  0  0
 96 97  1  0  0  0  0
 96 98  1  0  0  0  0
 96 99  1  0  0  0  0
 99100  1  0  0  0  0
 99101  1  0  0  0  0
 99102  1  0  0  0  0
102103  1  0  0  0  0
102104  1  0  0  0  0
102105  1  0  0  0  0
 88106  1  0  0  0  0
106107  2  0  0  0  0
106108  4  0  0  0  0
108109  1  0  0  0  0
109110  1  0  0  0  0
109111  1  0  0  0  0
108112  1  0  0  0  0
112113  1  0  0  0  0
112114  1  0  0  0  0
114115  1  0  0  0  0
114116  1  0  0  0  0
109117  1  0  0  0  0
114117  1  0  0  0  0
117118  1  0  0  0  0
117119  1  0  0  0  0
121122  1  0  0  0  0
121123  1  0  0  0  0
123124  1  0  0  0  0
123125  1  0  0  0  0
123126  1  0  0  0  0
126127  1  0  0  0  0
126128  1  0  0  0  0
126129  1  0  0  0  0
129130  1  0  0  0  0
129131  1  0  0  0  0
129132  1  0  0  0  0
132133  1  0  0  0  0
132134  4  0  0  0  0
134135  4  0  0  0  0
135136  1  0  0  0  0
135137  1  0  0  0  0
134138  4  0  0  0  0
138139  1  0  0  0  0
138140  1  0  0  0  0
142143  1  0  0  0  0
142144  1  0  0  0  0
144145  1  0  0  0  0
142146  1  0  0  0  0
146147  1  0  0  0  0
146148  1  0  0  0  0
148149  1  0  0  0  0
146150  1  0  0  0  0
150151  1  0  0  0  0
150152  1  0  0  0  0
152153  1  0  0  0  0
153154  1  0  0  0  0
154155  1  0  0  0  0
153156  2  0  0  0  0
153157  2  0  0  0  0
150158  1  0  0  0  0
158159  1  0  0  0  0
158160  1  0  0  0  0
160161  1  0  0  0  0
161162  2  0  0  0  0
161163  2  0  0  0  0
161164  2  0  0  0  0
158165  1  0  0  0  0
165166  1  0  0  0  0
165167  1  0  0  0  0
167168  1  0  0  0  0
142169  1  0  0  0  0
165169  1  0  0  0  0
169170  1  0  0  0  0
171172  2  0  0  0  0
171173  2  0  0  0  0
169174  1  0  0  0  0
171174  1  0  0  0  0
171175  1  0  0  0  0
175176  1  0  0  0  0
176177  1  0  0  0  0
176178  1  0  0  0  0
176179  1  0  0  0  0
179180  1  0  0  0  0
179181  1  0  0  0  0
181182  1  0  0  0  0
182183  2  0  0  0  0
182184  1  0  0  0  0
184185  1  0  0  0  0
184186  1  0  0  0  0
179187  1  0  0  0  0
187188  1  0  0  0  0
187189  1  0  0  0  0
187190  1  0  0  0  0
190191  1  0  0  0  0
191192  2  0  0  0  0
191193  1  0  0  0  0
193194  1  0  0  0  0
193195  1  0  0  0  0
184196  1  0  0  0  0
196197  1  0  0  0  0
196198  1  0  0  0  0
196199  1  0  0  0  0
199200  1  0  0  0  0
199201  1  0  0  0  0
199202  1  0  0  0  0
202203  1  0  0  0  0
202204  2  0  0  0  0
204205  1  0  0  0  0
204206  1  0  0  0  0
206207  1  0  0  0  0
206208  1  0  0  0  0
206209  1  0  0  0  0
209210  1  0  0  0  0
209211  2  0  0  0  0
211212  1  0  0  0  0
211213  1  0  0  0  0
213214  1  0  0  0  0
213215  1  0  0  0  0
213216  1  0  0  0  0
216217  1  0  0  0  0
216218  2  0  0  0  0
218219  1  0  0  0  0
218220  1  0  0  0  0
220221  1  0  0  0  0
220222  1  0  0  0  0
220223  1  0  0  0  0
223224  1  0  0  0  0
223225  2  0  0  0  0
225226  1  0  0  0  0
225227  1  0  0  0  0
227228  1  0  0  0  0
227229  1  0  0  0  0
227230  1  0  0  0  0
230231  1  0  0  0  0
230232  1  0  0  0  0
230233  1  0  0  0  0
233234  1  0  0  0  0
233235  1  0  0  0  0
233236  1  0  0  0  0
236237  1  0  0  0  0
236238  1  0  0  0  0
236239  1  0  0  0  0
239240  1  0  0  0  0
239241  1  0  0  0  0
239242  1  0  0  0  0
193243  1  0  0  0  0
243244  1  0  0  0  0
243245  1  0  0  0  0
243246  1  0  0  0  0
246247  1  0  0  0  0
246248  1  0  0  0  0
246249  1  0  0  0  0
249250  1  0  0  0  0
249251  1  0  0  0  0
249252  1  0  0  0  0
252253  1  0  0  0  0
252254  1  0  0  0  0
252255  1  0  0  0  0
255256  1  0  0  0  0
255257  1  0  0  0  0
255258  1  0  0  0  0
258259  1  0  0  0  0
258260  1  0  0  0  0
258261  1  0  0  0  0
261262  1  0  0  0  0
261263  1  0  0  0  0
261264  1  0  0  0  0
264265  1  0  0  0  0
264266  1  0  0  0  0
264267  1  0  0  0  0
267268  1  0  0  0  0
267269  1  0  0  0  0
267270  1  0  0  0  0
270271  1  0  0  0  0
270272  1  0  0  0  0
270273  1  0  0  0  0
273274  1  0  0  0  0
273275  1  0  0  0  0
273276  1  0  0  0  0
276277  1  0  0  0  0
276278  1  0  0  0  0
276279  1  0  0  0  0
279280  1  0  0  0  0
279281  1  0  0  0  0
279282  1  0  0  0  0
282283  1  0  0  0  0
282284  1  0  0  0  0
282285  1  0  0  0  0
285286  1  0  0  0  0
285287  1  0  0  0  0
285288  1  0  0  0  0
288289  1  0  0  0  0
288290  1  0  0  0  0
288291  1  0  0  0  0
  1292  1  0  0  0  0
 21292  2  0  0  0  0
292293  1  0  0  0  0
293294  1  0  0  0  0
293295  1  0  0  0  0
293296  1  0  0  0  0
  1297  1  0  0  0  0
297298  1  0  0  0  0
297299  1  0  0  0  0
 22300  1  0  0  0  0
 42300  2  0  0  0  0
300301  1  0  0  0  0
301302  1  0  0  0  0
301303  1  0  0  0  0
301304  1  0  0  0  0
 22305  1  0  0  0  0
305306  1  0  0  0  0
305307  1  0  0  0  0
 43308  1  0  0  0  0
 63308  2  0  0  0  0
308309  1  0  0  0  0
309310  1  0  0  0  0
309311  1  0  0  0  0
309312  1  0  0  0  0
 43313  1  0  0  0  0
313314  1  0  0  0  0
313315  1  0  0  0  0
 64316  1  0  0  0  0
316317  1  0  0  0  0
316318  1  0  0  0  0
112319  1  0  0  0  0
120319  2  0  0  0  0
319320  1  0  0  0  0
320321  1  0  0  0  0
320322  1  0  0  0  0
320323  1  0  0  0  0
121324  1  0  0  0  0
141324  2  0  0  0  0
324325  1  0  0  0  0
325326  1  0  0  0  0
325327  1  0  0  0  0
325328  1  0  0  0  0
121329  1  0  0  0  0
329330  1  0  0  0  0
329331  1  0  0  0  0
M  END
