   327
 Generated by Multiwfn
C      74.85900000     50.30600000     74.01800000
H      75.75100000     50.43000000     74.59600000
C      74.47100000     48.81900000     73.97700000
H      73.57900000     48.69600000     73.39700000
H      75.26300000     48.25300000     73.53300000
C      74.22300000     48.32600000     75.41300000
C      73.30800000     47.29600000     75.65200000
H      72.78000000     46.84900000     74.83500000
C      73.08300000     46.85200000     76.96200000
H      72.38300000     46.06500000     77.14600000
C      73.77500000     47.43900000     78.03000000
H      73.60500000     47.09600000     79.03100000
C      74.91600000     48.91400000     76.47900000
H      75.61700000     49.69900000     76.29200000
C      74.69100000     48.47200000     77.78800000
H      75.21700000     48.92500000     78.60400000
C      75.10300000     50.80500000     72.58200000
O      76.25600000     50.73600000     72.08100000
N      73.99100000     51.35700000     71.79600000
H      73.32600000     51.77600000     72.41400000
C      74.49600000     52.37300000     70.85900000
H      75.21200000     51.92700000     70.20200000
C      73.31900000     52.93400000     70.03900000
H      72.86000000     52.14400000     69.48700000
C      72.28600000     53.55300000     70.99800000
H      71.46500000     53.94300000     70.43400000
H      72.74500000     54.34300000     71.55500000
H      71.93200000     52.80200000     71.67200000
C      73.83300000     54.01200000     69.06400000
H      74.29600000     54.80600000     69.61500000
H      74.54800000     53.57700000     68.39900000
C      72.64900000     54.57300000     68.25200000
H      71.93800000     55.02200000     68.91700000
H      72.18000000     53.77700000     67.71300000
H      73.00300000     55.31100000     67.56300000
O      76.11000000     54.16600000     71.11800000
C      76.82900000     53.95900000     75.67300000
H      75.93200000     54.50400000     75.87900000
C      77.01600000     52.84800000     76.72400000
H      76.19400000     52.16600000     76.67200000
H      77.06300000     53.27400000     77.70600000
C      78.33000000     52.11100000     76.42300000
H      78.46200000     51.30500000     77.11500000
H      79.14700000     52.79500000     76.51300000
C      78.28600000     51.57000000     74.98500000
H      79.20800000     51.07700000     74.76000000
H      77.47700000     50.87500000     74.88200000
N      78.08700000     52.70300000     74.06800000
H      77.55900000     53.49600000     74.37300000
C      78.60100000     52.69700000     72.83600000
N      78.38800000     53.74400000     72.03900000
H      77.84400000     54.51600000     72.36700000
H      78.77000000     53.75700000     71.11600000
N      79.32300000     51.66000000     72.40000000
H      79.70400000     51.66900000     71.47400000
H      79.48100000     50.87500000     72.99800000
O      78.01600000     55.92900000     76.46000000
C      88.26400000     52.46000000     74.62000000
H      89.06900000     52.06900000     74.03400000
C      87.32300000     51.31600000     75.04000000
H      86.92000000     50.84700000     74.16600000
H      86.52600000     51.71500000     75.63200000
C      88.09900000     50.27100000     75.86400000
H      88.88700000     49.86100000     75.26700000
C      87.13500000     49.14900000     76.29200000
H      86.71800000     48.68600000     75.42200000
H      87.66700000     48.42000000     76.86600000
H      86.34800000     49.56400000     76.88700000
C      88.70000000     50.93300000     77.11900000
H      87.91500000     51.34900000     77.71400000
H      89.37500000     51.70900000     76.82600000
H      89.23000000     50.19700000     77.69000000
O      87.42400000     53.37500000     72.53200000
C      89.78500000     51.21900000     70.19100000
H      90.74200000     50.75300000     70.06700000
C      88.67600000     50.14500000     70.17300000
H      87.72300000     50.61800000     70.28000000
H      88.70800000     49.61600000     69.24400000
C      88.88700000     49.15900000     71.33500000
H      88.84900000     49.69600000     72.26000000
H      89.84200000     48.68600000     71.23600000
C      87.78000000     48.08200000     71.31900000
H      87.91800000     47.42400000     72.14900000
H      86.82400000     48.55700000     71.39100000
N      87.85300000     47.30100000     70.07400000
H      88.17900000     47.72200000     69.22900000
C      87.48100000     46.01400000     70.08300000
N      87.02700000     45.45900000     71.21300000
H      86.94900000     46.00900000     72.04600000
H      86.76300000     44.49400000     71.22600000
N      87.56300000     45.28000000     68.96900000
H      87.29400000     44.31600000     68.98300000
H      87.89000000     45.69500000     68.12300000
O      90.07200000     52.02500000     67.92000000
C      90.76000000     52.44900000     65.46800000
H      91.00800000     53.45200000     65.18700000
C      92.05800000     51.70100000     65.85100000
H      92.53800000     52.22600000     66.65000000
H      91.82700000     50.70400000     66.16700000
C      92.99500000     51.64300000     64.63000000
H      93.18200000     52.63700000     64.28000000
H      93.92200000     51.18300000     64.90400000
C      92.32800000     50.81000000     63.52100000
H      91.38700000     51.24500000     63.25900000
H      92.96000000     50.78500000     62.65700000
N      92.12500000     49.43700000     64.01700000
H      91.97800000     49.27900000     64.99200000
C      92.13500000     48.39800000     63.17300000
N      92.27900000     48.60000000     61.85800000
H      92.29300000     47.82000000     61.23100000
H      92.37000000     49.53000000     61.50100000
N      92.00400000     47.15300000     63.64400000
H      92.01100000     46.37500000     63.01300000
H      91.89900000     47.00100000     64.62600000
C      90.05900000     51.75900000     64.28100000
O      90.73100000     51.11900000     63.43400000
N      88.59500000     51.86200000     64.14500000
H      88.28100000     52.70700000     64.57900000
C      88.22400000     51.88600000     62.71900000
H      88.53400000     50.97300000     62.25500000
C      86.69700000     52.03500000     62.58000000
H      86.38500000     52.95500000     63.03300000
H      86.43400000     52.04000000     61.54400000
C      86.00000000     50.86100000     63.28100000
H      84.93900000     50.95800000     63.17700000
H      86.31700000     49.94100000     62.83900000
C      86.37400000     50.87500000     64.77000000
H      86.05200000     51.79600000     65.20900000
H      85.89600000     50.05700000     65.26700000
C      87.89900000     50.74800000     64.91700000
H      88.22700000     49.83200000     64.47300000
H      88.37500000     51.57200000     64.42600000
N      88.24700000     50.75700000     66.34100000
H      87.93500000     51.61200000     66.75500000
H      89.23800000     50.67800000     66.44400000
H      87.80200000     49.98500000     66.79500000
O      89.18800000     54.10800000     62.69800000
C      82.61000000     52.27900000     68.64100000
H      83.58500000     52.26000000     69.07800000
O      81.93200000     53.47300000     69.04100000
H      81.05500000     53.48700000     68.64900000
C      82.73500000     52.24800000     67.10200000
H      83.24900000     51.35700000     66.80900000
O      83.46800000     53.39300000     66.65700000
H      83.00100000     54.19100000     66.91600000
C      81.33100000     52.26300000     66.46000000
H      81.43100000     52.22800000     65.39500000
O      80.63600000     53.45500000     66.82900000
P      80.74200000     54.72200000     65.93400000
C      80.53000000     51.04300000     66.94400000
H      81.03800000     50.14500000     66.65900000
O      79.22500000     51.06100000     66.35300000
P      78.34200000     49.68000000     66.84800000
C      80.40100000     51.09700000     68.47500000
H      79.90600000     52.00300000     68.76500000
O      79.63900000     49.97200000     68.92700000
H      78.76000000     50.00100000     68.54000000
C      81.80600000     51.05100000     69.10800000
H      82.30600000     50.15800000     68.80000000
P      83.16200000     50.71400000     71.33000000
O      83.73400000     49.42900000     70.79400000
O      84.14300000     51.83000000     71.09800000
O      81.67400000     51.04400000     70.53600000
O      82.86800000     50.55200000     72.85200000
C      83.79700000     50.04700000     73.82700000
H      84.52400000     49.41600000     73.35800000
H      84.30400000     50.85100000     74.32200000
C      82.94900000     49.23200000     74.82400000
H      82.22400000     49.88300000     75.26500000
O      83.72600000     48.61500000     75.86700000
C      83.91000000     49.46300000     77.00900000
O      84.18100000     50.68900000     76.90900000
C      83.71200000     48.77200000     78.38100000
H      84.65500000     48.47100000     78.79000000
H      83.09500000     47.91100000     78.22900000
C      82.22000000     48.11800000     74.05500000
H      81.67600000     48.54000000     73.23700000
H      82.91800000     47.39900000     73.67900000
O      81.30400000     47.52000000     74.97000000
C      80.15700000     48.12400000     75.02600000
O      79.81900000     48.86900000     74.06800000
C      79.20600000     47.99800000     76.22800000
H      78.20200000     48.16200000     75.89800000
H      79.27600000     47.02800000     76.67400000
C      82.98300000     49.71700000     79.35600000
H      83.60300000     50.55200000     79.60900000
H      82.09000000     50.06700000     78.88200000
C      82.57900000     48.92400000     80.62200000
H      81.96400000     49.54000000     81.24400000
H      82.03100000     48.06300000     80.30000000
C      83.78600000     48.46300000     81.47100000
H      83.60800000     48.20300000     82.49400000
C      85.05500000     48.37300000     81.01600000
H      85.33300000     48.76400000     80.05900000
C      86.08900000     47.70000000     81.94300000
H      86.94100000     47.39600000     81.37200000
H      85.64100000     46.84300000     82.40100000
C      86.50300000     48.67700000     83.06000000
H      86.51400000     49.73300000     82.88700000
C      86.83800000     48.16900000     84.27900000
H      86.94200000     47.11000000     84.40000000
C      87.05800000     49.09800000     85.49100000
H      87.40400000     50.05200000     85.15200000
H      87.78400000     48.67000000     86.15100000
C      85.71200000     49.26100000     86.23900000
H      84.79700000     49.18000000     85.69100000
C      85.66100000     49.50500000     87.58000000
H      84.71000000     49.60900000     88.05800000
C      86.94900000     49.64500000     88.41300000
H      87.73700000     49.99100000     87.78000000
H      86.78500000     50.34800000     89.20300000
C      87.34300000     48.28700000     89.03100000
H      87.97400000     47.61100000     88.49100000
C      86.89500000     47.95700000     90.27100000
H      86.23100000     48.61300000     90.79200000
C      87.35200000     46.63900000     90.92800000
H      87.51200000     45.90300000     90.16800000
H      88.26400000     46.80900000     91.46100000
C      86.28100000     46.13500000     91.91600000
H      85.36000000     45.97500000     91.39800000
H      86.13400000     46.86400000     92.68800000
C      86.75600000     44.80500000     92.54100000
H      86.89500000     44.08300000     91.76600000
H      87.68200000     44.96200000     93.05500000
C      85.70300000     44.28400000     93.54100000
H      84.77000000     44.14400000     93.03500000
H      86.03100000     43.35200000     93.95000000
C      85.52300000     45.30300000     94.68100000
H      86.45500000     45.43800000     95.18900000
H      84.79100000     44.93800000     95.37200000
H      85.19600000     46.23800000     94.27800000
C      79.61500000     49.07900000     77.24900000
H      80.59100000     48.85200000     77.62400000
H      79.62800000     50.03200000     76.76100000
C      78.61200000     49.15900000     78.41300000
H      78.54100000     48.22200000     78.92500000
H      77.65400000     49.42000000     78.02000000
C      79.09500000     50.25000000     79.38900000
H      79.26400000     51.15700000     78.84600000
H      80.00700000     49.93400000     79.85200000
C      78.02000000     50.52600000     80.45300000
H      77.80700000     49.64200000     81.01900000
H      78.36400000     51.29300000     81.11600000
C      76.76100000     51.00000000     79.70500000
H      77.01900000     51.84200000     79.09800000
H      76.40100000     50.20500000     79.08700000
C      75.65800000     51.43300000     80.68400000
H      76.02200000     52.23300000     81.29400000
H      75.36700000     50.61500000     81.31100000
C      74.45200000     51.91800000     79.85500000
H      74.06000000     51.09800000     79.29000000
H      74.77300000     52.69200000     79.19100000
C      73.35800000     52.48800000     80.77400000
H      73.01300000     51.73500000     81.45200000
H      72.53800000     52.82700000     80.17500000
C      73.94700000     53.67200000     81.56600000
H      74.73300000     53.31700000     82.19700000
H      74.33600000     54.39800000     80.88200000
C      72.84600000     54.33500000     82.41700000
H      72.07600000     54.70400000     81.77100000
H      72.43000000     53.62100000     83.09600000
C      73.45700000     55.50500000     83.21600000
H      73.91900000     56.19900000     82.54400000
H      74.19000000     55.12300000     83.89500000
C      72.34500000     56.23000000     84.00100000
H      71.85200000     55.53900000     84.65200000
H      71.63600000     56.64000000     83.31200000
C      72.96100000     57.36100000     84.84400000
H      72.18500000     57.88000000     85.36600000
H      73.48100000     58.04600000     84.20800000
C      73.93700000     56.74300000     85.86000000
H      74.71400000     56.22000000     85.34200000
H      74.36900000     57.51700000     86.46000000
C      73.15900000     55.75900000     86.75700000
H      72.72800000     54.99100000     86.15000000
H      72.38300000     56.28900000     87.26800000
C      74.10900000     55.12200000     87.78400000
H      73.56000000     54.44700000     88.40900000
H      74.54800000     55.89000000     88.38800000
H      74.87900000     54.58700000     87.27200000
O      79.04400000     48.43600000     66.37300000
O      76.95900000     49.72700000     66.25700000
O      78.24700000     49.66000000     68.34800000
O      80.26000000     54.39500000     64.54700000
O      79.89200000     55.81900000     66.51500000
O      82.17600000     55.17600000     65.87400000
H      82.63600000     55.21100000     65.03000000
N      76.73500000     53.35300000     74.33400000
H      75.95600000     52.72700000     74.30200000
H      76.60900000     54.07300000     73.64900000
C      78.04000000     54.91000000     75.72300000
C      79.17600000     54.63500000     74.94300000
H      80.02500000     54.50400000     75.58400000
H      79.01400000     53.73900000     74.38000000
H      79.35900000     55.44900000     74.27300000
C      88.90800000     53.08100000     62.03000000
C      89.21000000     53.02300000     60.66500000
H      88.69600000     53.81200000     60.15500000
H      90.26400000     53.13600000     60.52800000
H      88.89600000     52.07900000     60.26900000
N      89.75600000     51.93600000     71.47300000
H      90.46600000     52.64200000     71.47700000
H      88.86000000     52.36400000     71.59300000
C      89.54300000     52.21700000     69.04500000
C      88.72600000     53.33700000     69.25800000
H      87.74700000     53.01500000     69.55200000
H      89.14900000     53.94200000     70.03400000
H      88.65700000     53.90800000     68.35600000
N      89.85300000     52.46800000     66.62600000
H      90.30000000     52.92800000     67.39500000
H      89.01500000     52.95800000     66.38700000
N      88.80600000     53.11000000     75.82300000
H      89.41000000     53.85900000     75.55400000
H      88.05400000     53.46900000     76.37600000
C      87.47300000     53.48900000     73.78500000
C      86.80600000     54.54800000     74.41600000
H      86.07600000     54.15600000     75.09400000
H      87.51200000     55.14300000     74.95700000
H      86.31900000     55.15400000     73.68000000
N      73.76800000     51.07900000     74.63600000
H      72.92800000     50.95700000     74.10800000
H      73.62000000     50.75900000     75.57500000
C      75.16300000     53.52100000     71.63900000
C      74.71800000     53.85100000     72.92800000
H      75.52300000     53.74100000     73.62500000
H      74.37600000     54.86600000     72.93800000
H      73.91500000     53.20200000     73.20700000
