   384
 Generated by Multiwfn
C      71.69000000    103.71000000     54.84000000
H      70.98000000    103.73000000     54.03000000
C      72.26000000    102.29000000     55.08000000
H      73.03000000    102.23000000     55.88000000
H      72.83000000    102.14000000     54.14000000
C      71.20000000    101.20000000     55.15000000
H      71.48000000    100.35000000     54.49000000
H      70.24000000    101.63000000     54.77000000
C      70.97000000    100.53000000     56.55000000
H      70.74000000    101.33000000     57.29000000
H      71.91000000     99.99000000     56.77000000
C      69.80000000     99.51000000     56.56000000
H      69.00000000     99.89000000     55.90000000
H      70.03000000     98.50000000     56.15000000
N      69.32000000     99.22000000     57.93000000
H      70.27000000     99.02000000     58.31000000
H      68.80000000     98.33000000     57.81000000
H      68.85000000     99.97000000     58.48000000
C      71.10000000    104.28000000     56.14000000
O      70.07000000    103.86000000     56.69000000
N      71.72000000    105.37000000     56.65000000
H      72.53000000    105.73000000     56.20000000
C      71.32000000    106.09000000     57.88000000
H      70.25000000    106.17000000     57.72000000
C      71.34000000    105.16000000     59.17000000
H      70.55000000    104.40000000     58.95000000
H      71.05000000    105.71000000     60.09000000
C      72.57000000    104.25000000     59.41000000
C      73.90000000    104.56000000     58.99000000
H      74.05000000    105.45000000     58.40000000
C      75.02000000    103.96000000     59.57000000
H      76.00000000    104.34000000     59.29000000
C      74.84000000    102.86000000     60.38000000
O      75.91000000    102.19000000     60.82000000
H      75.66000000    101.65000000     61.57000000
C      72.41000000    103.30000000     60.46000000
H      71.40000000    103.19000000     60.80000000
C      73.53000000    102.61000000     60.93000000
H      73.37000000    101.86000000     61.69000000
O      72.80000000    107.85000000     58.75000000
C      67.43000000    104.16000000     63.08000000
H      66.76000000    103.64000000     63.75000000
C      67.11000000    103.63000000     61.71000000
H      67.14000000    104.43000000     60.94000000
H      67.87000000    102.88000000     61.38000000
C      65.66000000    102.97000000     61.66000000
H      64.84000000    103.71000000     61.76000000
H      65.59000000    102.36000000     62.59000000
C      65.30000000    102.44000000     60.28000000
H      66.11000000    101.88000000     59.78000000
H      65.06000000    103.26000000     59.58000000
N      64.06000000    101.61000000     60.47000000
H      63.81000000    101.28000000     61.38000000
C      63.24000000    101.17000000     59.58000000
N      63.34000000    101.57000000     58.33000000
H      62.91000000    101.05000000     57.59000000
H      63.82000000    102.44000000     58.18000000
N      62.36000000    100.18000000     59.83000000
H      62.03000000     99.74000000     59.00000000
H      62.74000000     99.55000000     60.51000000
O      69.08000000    102.63000000     63.83000000
C      66.89000000    102.04000000     67.23000000
H      66.51000000    102.11000000     68.24000000
C      65.66000000    102.20000000     66.24000000
H      66.03000000    102.72000000     65.33000000
H      65.32000000    101.22000000     65.84000000
C      64.63000000    103.17000000     66.84000000
H      65.25000000    103.73000000     67.58000000
H      63.81000000    102.61000000     67.35000000
C      64.05000000    104.27000000     65.82000000
H      63.08000000    104.68000000     66.18000000
H      64.78000000    105.07000000     65.58000000
N      63.76000000    103.69000000     64.46000000
H      63.95000000    104.11000000     63.57000000
C      62.79000000    102.79000000     64.25000000
N      62.15000000    102.13000000     65.16000000
H      62.18000000    102.39000000     66.12000000
H      61.36000000    101.58000000     64.89000000
N      62.35000000    102.64000000     63.03000000
H      61.51000000    102.11000000     62.88000000
H      62.47000000    103.26000000     62.26000000
C      67.48000000    100.67000000     67.01000000
O      66.84000000     99.64000000     67.24000000
N      68.85000000    100.62000000     66.86000000
H      69.32000000    101.41000000     66.48000000
C      69.53000000     99.43000000     67.38000000
H      69.01000000     98.60000000     66.93000000
C      70.98000000     99.34000000     66.93000000
H      71.39000000     98.48000000     67.50000000
H      71.52000000    100.28000000     67.17000000
C      71.22000000     99.03000000     65.46000000
H      70.98000000     99.90000000     64.81000000
H      70.57000000     98.20000000     65.13000000
C      72.61000000     98.49000000     65.12000000
H      72.70000000     97.47000000     65.54000000
H      72.72000000     98.45000000     64.01000000
C      73.76000000     99.33000000     65.74000000
H      73.61000000     99.58000000     66.81000000
H      73.91000000    100.20000000     65.07000000
N      75.04000000     98.61000000     65.59000000
H      74.99000000     98.10000000     64.68000000
H      75.31000000     97.96000000     66.36000000
H      75.87000000     99.24000000     65.59000000
C      69.44000000     99.46000000     68.88000000
O      70.03000000    100.44000000     69.43000000
N      68.85000000     98.62000000     69.70000000
C      68.04000000     97.49000000     69.31000000
H      68.85000000     96.72000000     69.25000000
H      67.49000000     97.50000000     68.34000000
C      68.81000000     98.85000000     71.19000000
H      68.60000000     99.91000000     71.31000000
C      67.72000000     97.87000000     71.69000000
H      68.22000000     97.05000000     72.25000000
H      67.01000000     98.33000000     72.42000000
C      67.12000000     97.23000000     70.43000000
H      66.18000000     97.80000000     70.24000000
H      66.92000000     96.14000000     70.37000000
O      70.23000000     99.23000000     73.03000000
C      71.56000000     89.05000000     63.31000000
H      70.69000000     89.66000000     63.11000000
C      72.65000000     89.69000000     62.31000000
H      72.33000000     89.34000000     61.30000000
H      73.66000000     89.24000000     62.43000000
C      72.76000000     91.23000000     62.46000000
H      73.17000000     91.54000000     61.47000000
H      73.52000000     91.39000000     63.25000000
C      71.55000000     92.11000000     62.87000000
H      71.08000000     91.64000000     63.76000000
H      71.80000000     93.17000000     63.09000000
N      70.51000000     92.04000000     61.85000000
H      70.01000000     91.19000000     61.70000000
C      70.20000000     92.92000000     60.94000000
N      70.74000000     94.05000000     60.73000000
H      71.55000000     94.36000000     61.24000000
H      70.17000000     94.80000000     60.40000000
N      68.95000000     92.90000000     60.50000000
H      68.74000000     93.79000000     60.08000000
H      68.17000000     92.51000000     60.99000000
O      70.11000000     87.51000000     62.20000000
C      79.26000000     97.41000000     55.09000000
H      80.28000000     97.73000000     55.24000000
C      79.15000000     97.03000000     53.58000000
H      79.51000000     96.01000000     53.32000000
H      78.07000000     97.04000000     53.32000000
C      79.66000000     97.97000000     52.55000000
O      80.42000000     98.91000000     52.91000000
O      79.27000000     97.77000000     51.40000000
C      78.46000000     98.65000000     55.54000000
O      78.95000000     99.71000000     55.90000000
N      77.11000000     98.43000000     55.61000000
H      76.82000000     97.52000000     55.34000000
C      76.10000000     99.32000000     56.08000000
H      76.57000000    100.23000000     56.43000000
C      75.32000000     99.97000000     54.91000000
H      75.22000000     99.19000000     54.13000000
H      74.24000000    100.06000000     55.16000000
C      75.91000000    101.26000000     54.31000000
H      75.46000000    102.13000000     54.83000000
H      76.96000000    101.17000000     54.66000000
C      75.70000000    101.41000000     52.82000000
H      74.66000000    101.69000000     52.54000000
H      76.40000000    102.23000000     52.56000000
C      76.10000000    100.20000000     51.94000000
H      75.46000000     99.29000000     52.03000000
H      77.18000000     99.97000000     52.06000000
N      75.93000000    100.60000000     50.53000000
H      74.94000000    100.92000000     50.42000000
H      76.53000000    101.40000000     50.26000000
H      76.04000000     99.83000000     49.84000000
C      75.23000000     98.87000000     57.19000000
O      75.52000000     99.19000000     58.34000000
N      74.12000000     98.25000000     56.99000000
H      73.40000000     98.45000000     57.64000000
C      73.96000000     96.92000000     56.34000000
H      74.72000000     96.33000000     56.82000000
C      72.66000000     96.21000000     56.84000000
H      71.82000000     96.90000000     56.59000000
H      72.65000000     96.18000000     57.95000000
C      72.38000000     94.89000000     56.22000000
H      73.26000000     94.24000000     56.42000000
H      72.12000000     94.96000000     55.14000000
C      71.29000000     94.03000000     56.92000000
H      71.28000000     93.04000000     56.43000000
H      71.54000000     93.80000000     57.98000000
N      70.01000000     94.67000000     56.80000000
H      69.61000000     95.10000000     57.61000000
C      69.26000000     94.69000000     55.70000000
N      69.40000000     93.89000000     54.67000000
H      69.74000000     93.01000000     55.00000000
H      68.63000000     93.89000000     54.04000000
N      68.25000000     95.58000000     55.66000000
H      68.21000000     96.18000000     56.46000000
H      67.60000000     95.63000000     54.90000000
O      73.60000000     97.25000000     53.97000000
C      67.36000000     99.24000000     63.30000000
H      68.10000000     99.03000000     64.10000000
O      66.60000000    100.35000000     63.77000000
H      65.80000000    100.39000000     63.25000000
C      68.33000000     99.67000000     62.24000000
H      68.96000000    100.48000000     62.66000000
O      67.50000000    100.11000000     61.14000000
H      67.00000000     99.32000000     60.90000000
C      69.28000000     98.60000000     61.72000000
H      69.90000000     98.26000000     62.57000000
O      70.12000000     99.18000000     60.68000000
P      71.61000000     98.40000000     60.48000000
O      72.57000000     99.25000000     61.28000000
H      73.31000000     98.69000000     61.55000000
O      71.66000000     96.98000000     61.07000000
O      72.05000000     98.55000000     59.01000000
C      68.52000000     97.30000000     61.31000000
H      69.27000000     96.49000000     61.36000000
O      67.93000000     97.45000000     60.03000000
P      67.65000000     96.31000000     58.97000000
O      66.22000000     95.84000000     59.18000000
O      68.64000000     95.20000000     59.15000000
O      67.84000000     97.06000000     57.71000000
C      67.46000000     96.86000000     62.38000000
H      68.03000000     96.47000000     63.26000000
O      66.78000000     95.71000000     62.03000000
H      66.61000000     95.82000000     61.09000000
C      66.64000000     97.98000000     63.08000000
H      66.35000000     97.53000000     64.06000000
P      64.03000000     98.64000000     62.65000000
O      64.00000000    100.07000000     62.87000000
O      63.13000000     98.11000000     61.59000000
O      65.50000000     98.21000000     62.15000000
O      63.85000000     97.77000000     63.96000000
C      64.03000000     98.49000000     65.24000000
H      65.06000000     98.38000000     65.65000000
H      63.64000000     99.53000000     65.21000000
C      63.26000000     97.72000000     66.35000000
H      62.18000000     97.94000000     66.22000000
O      63.67000000     98.23000000     67.66000000
C      63.26000000     99.43000000     68.12000000
O      62.42000000    100.17000000     67.52000000
C      64.04000000     99.83000000     69.39000000
H      64.82000000    100.54000000     69.03000000
H      64.49000000     98.92000000     69.84000000
C      63.55000000     96.21000000     66.23000000
H      64.54000000     95.96000000     65.80000000
H      62.69000000     95.95000000     65.59000000
O      63.35000000     95.60000000     67.51000000
C      64.43000000     95.27000000     68.20000000
O      65.57000000     95.22000000     67.76000000
C      64.02000000     94.64000000     69.54000000
H      63.80000000     95.29000000     70.42000000
H      63.03000000     94.17000000     69.36000000
C      63.10000000    100.59000000     70.33000000
H      62.79000000    101.55000000     69.85000000
H      62.19000000    100.05000000     70.67000000
C      64.00000000    100.92000000     71.56000000
H      63.39000000    101.61000000     72.18000000
H      64.88000000    101.50000000     71.19000000
C      64.44000000     99.73000000     72.47000000
H      65.14000000    100.00000000     73.28000000
C      63.91000000     98.47000000     72.44000000
H      63.10000000     98.30000000     71.72000000
C      64.35000000     97.29000000     73.35000000
H      65.39000000     96.94000000     73.21000000
H      63.71000000     96.43000000     73.04000000
C      63.92000000     97.52000000     74.77000000
H      64.15000000     98.54000000     75.10000000
C      63.24000000     96.72000000     75.62000000
H      62.85000000     95.73000000     75.31000000
C      62.71000000     97.11000000     76.98000000
H      61.65000000     97.39000000     76.81000000
H      63.12000000     98.10000000     77.28000000
C      62.96000000     96.03000000     78.03000000
H      63.70000000     96.33000000     78.78000000
C      62.32000000     94.92000000     78.29000000
H      62.69000000     94.35000000     79.16000000
C      61.05000000     94.47000000     77.51000000
H      60.79000000     95.29000000     76.82000000
H      60.15000000     94.40000000     78.16000000
C      61.30000000     93.18000000     76.71000000
H      61.46000000     93.28000000     75.62000000
C      61.25000000     91.88000000     77.18000000
H      61.34000000     91.73000000     78.27000000
C      61.50000000     90.70000000     76.29000000
H      62.51000000     90.27000000     76.47000000
H      61.41000000     91.09000000     75.26000000
C      60.42000000     89.63000000     76.49000000
H      60.28000000     88.97000000     75.61000000
H      59.43000000     90.11000000     76.68000000
C      60.62000000     88.73000000     77.67000000
H      59.84000000     87.95000000     77.77000000
H      60.52000000     89.33000000     78.60000000
C      62.05000000     88.15000000     77.91000000
H      62.72000000     89.02000000     78.03000000
H      62.44000000     87.51000000     77.09000000
C      62.21000000     87.30000000     79.14000000
H      61.64000000     87.79000000     79.95000000
H      63.22000000     87.04000000     79.52000000
H      61.76000000     86.31000000     78.89000000
C      65.13000000     93.60000000     69.91000000
H      65.28000000     92.79000000     69.17000000
H      66.07000000     94.18000000     69.80000000
C      65.06000000     92.98000000     71.33000000
H      65.74000000     92.10000000     71.38000000
H      64.02000000     92.61000000     71.46000000
C      65.40000000     94.08000000     72.39000000
H      64.45000000     94.60000000     72.67000000
H      66.06000000     94.91000000     72.05000000
C      65.89000000     93.37000000     73.71000000
H      66.14000000     94.06000000     74.54000000
H      66.81000000     92.90000000     73.29000000
C      64.99000000     92.21000000     74.25000000
H      64.02000000     92.62000000     74.62000000
H      64.63000000     91.64000000     73.37000000
C      65.64000000     91.25000000     75.25000000
H      65.03000000     90.34000000     75.09000000
H      66.57000000     90.85000000     74.81000000
C      65.59000000     91.54000000     76.71000000
H      66.17000000     90.72000000     77.19000000
H      64.58000000     91.54000000     77.17000000
C      66.32000000     92.84000000     77.11000000
H      67.35000000     92.98000000     76.70000000
H      65.78000000     93.69000000     76.65000000
C      66.37000000     93.05000000     78.64000000
H      66.80000000     92.12000000     79.05000000
H      65.35000000     93.23000000     79.05000000
C      67.35000000     94.17000000     79.08000000
H      68.30000000     93.93000000     78.55000000
H      67.04000000     95.15000000     78.67000000
C      67.40000000     94.24000000     80.59000000
H      67.62000000     93.25000000     81.04000000
H      68.19000000     94.95000000     80.89000000
C      66.08000000     94.73000000     81.30000000
H      65.15000000     94.45000000     80.76000000
H      66.12000000     95.83000000     81.39000000
C      65.91000000     94.27000000     82.76000000
H      64.98000000     94.69000000     83.21000000
H      65.91000000     93.17000000     82.91000000
C      67.12000000     94.79000000     83.66000000
H      68.09000000     94.60000000     83.16000000
H      67.03000000     95.89000000     83.51000000
C      66.97000000     94.43000000     85.16000000
H      65.96000000     94.68000000     85.55000000
H      67.70000000     95.08000000     85.68000000
C      67.43000000     92.98000000     85.36000000
H      68.53000000     92.81000000     85.27000000
H      66.88000000     92.35000000     84.63000000
H      67.13000000     92.52000000     86.33000000
C      71.09000000     87.64000000     62.92000000
C      71.52300000     86.34000000     63.21300000
H      70.83600000     85.88000000     63.89200000
H      71.56900000     85.76700000     62.31000000
H      72.49400000     86.38000000     63.66000000
N      71.85400000     89.14100000     64.74800000
H      71.05200000     88.85100000     65.27000000
H      72.62800000     88.54800000     64.96800000
C      70.14000000     98.73000000     71.92000000
C      71.36900000     98.12200000     71.63300000
H      71.22900000     97.36700000     70.88800000
H      72.05600000     98.85800000     71.27000000
H      71.76300000     97.67500000     72.52200000
C      68.80000000    103.74000000     63.50000000
C      70.01000000    104.43000000     63.65400000
H      70.16000000    104.66000000     64.68800000
H      70.81600000    103.81900000     63.30400000
H      69.97800000    105.33700000     63.08800000
N      67.09700000    105.59200000     63.10000000
H      66.61600000    105.81000000     63.94900000
H      67.93700000    106.13000000     63.04400000
N      72.75400000    104.63500000     54.42200000
H      73.48200000    104.12200000     53.96800000
H      72.37800000    105.31100000     53.78900000
N      78.97100000     96.21500000     55.89600000
H      79.25100000     95.39800000     55.39300000
H      79.47600000     96.26500000     56.75800000
C      74.27000000     96.67000000     54.87000000
C      75.18400000     95.79500000     54.26800000
H      75.75200000     96.32400000     53.53100000
H      75.84500000     95.40100000     55.01200000
H      74.65400000     94.99200000     53.80000000
C      71.89000000    107.46000000     57.94000000
C      71.53700000    108.58600000     57.18400000
H      71.43500000    109.43200000     57.83000000
H      72.30000000    108.78200000     56.45900000
H      70.60900000    108.40400000     56.68500000
N      67.89700000    103.08800000     67.00800000
H      67.73200000    103.52700000     66.12600000
H      67.83500000    103.76900000     67.73700000
